tests/golden/reports/show_busflow_mva_elem.txt

  Bus   (node ref)  Node       V (kV)    Angle    p.u.   Base kV

675 ........ 1       2.3448 /_   -5.6   0.97627     4.160        1-2      4.134 /_   27.1   0.99376
   -         2       2.5042 /_ -122.6    1.0426     4.160        2-3     4.2024 /_  -94.6    1.0102
   -         3       2.3128 /_  116.0   0.96295     4.160        3-1     4.0663 /_  145.4   0.97747

CIRCUIT ELEMENT CURRENTS

(Currents into element from indicated bus)

Power Delivery Elements

  Bus         Phase    Magnitude, A     Angle      (Real)   +j  (Imag)

ELEMENT = "Capacitor.cap1"
675              1           81.296 /_   84.4 =     7.9652 +j    80.905
675              2           86.822 /_  -32.6 =     73.169 +j   -46.736
675              3           80.187 /_ -154.0 =    -72.069 +j   -35.156
675          Resid            9.119 /_  173.8 =     -9.0654 +j   0.98713
------------
675              0           81.296 /_  -95.6 =    -7.9652 +j   -80.905
675              0           86.822 /_  147.4 =    -73.169 +j    46.736
675              0           80.187 /_   26.0 =     72.069 +j    35.156
675          Resid            9.119 /_   -6.2 =      9.0654 +j  -0.98713


ELEMENT = "Line.692675"
692              1           206.84 /_   -5.5 =     205.88 +j    -19.97
692              2           68.507 /_  -55.9 =     38.389 +j   -56.741
692              3           125.91 /_  110.8 =    -44.687 +j    117.71
692          Resid           203.75 /_ -168.4 =     -199.58 +j   -41.002
------------
675              1           206.84 /_  174.5 =    -205.87 +j    20.002
675              2           68.476 /_  124.1 =     -38.36 +j    56.723
675              3           125.91 /_  -69.2 =     44.659 +j   -117.73
675          Resid           203.74 /_   11.6 =      199.57 +j    41.003


= = = = = = = = = = = = = = = = = = =  = = = = = = = = = = =  = =

Power Conversion Elements

  Bus         Phase    Magnitude, A     Angle      (Real)   +j  (Imag)

ELEMENT = "Load.675a"
675              1           222.15 /_  -27.0 =     197.91 +j   -100.91
675              0           222.15 /_  153.0 =    -197.91 +j    100.91


ELEMENT = "Load.675b"
675              2           36.214 /_ -164.0 =     -34.81 +j   -9.9872
675              0           36.214 /_   16.0 =      34.81 +j    9.9872


ELEMENT = "Load.675c"
675              3           155.32 /_   79.8 =     27.411 +j    152.88
675              0           155.32 /_ -100.2 =    -27.411 +j   -152.88



CIRCUIT ELEMENT POWER FLOW

(Power Flow into element from indicated Bus)

  Bus       Phase     MW     +j   Mvar           MVA           PF

ELEMENT = "Capacitor.cap1"
675             1  3.638E-18 +j   -0.19062       0.19062      0.0000
675             2          0 +j   -0.21742       0.21742      1.0000
675             3          0 +j   -0.18546       0.18546      1.0000
 TERMINAL TOTAL    3.638E-18 +j   -0.59349       0.59349      0.0000
------------
ELEMENT = "Capacitor.cap1"
675             0          0 +j          0             0      1.0000
675             0          0 +j          0             0      1.0000
675             0          0 +j          0             0      1.0000
 TERMINAL TOTAL            0 +j          0             0      1.0000
ELEMENT = "Line.692675"
675             1     -0.485 +j 0.00062163         0.485     -1.0000
675             2     -0.068 +j    0.15742       0.17148     -0.3966
675             3      -0.29 +j  -0.026544       0.29121      0.9958
 TERMINAL TOTAL       -0.843 +j    0.13149       0.85319     -0.9881
------------
ELEMENT = "Line.692675"
692             1    0.48824 +j  0.0014198       0.48824      1.0000
692             2   0.068333 +j   -0.15693       0.17117     -0.3992
692             3    0.29059 +j   0.026441       0.29179      0.9959
 TERMINAL TOTAL      0.84716 +j   -0.12907       0.85694     -0.9886
= = = = = = = = = = = = = = = = = = =  = = = = = = = = = = =  = =

Power Conversion Elements

  Bus         Phase     MW   +j  Mvar         MVA         PF

ELEMENT = "Load.675a"
675             1      0.485 +j       0.19       0.52089      0.9311
675             0          0 +j          0             0      1.0000
 TERMINAL TOTAL        0.485 +j       0.19       0.52089      0.9311

ELEMENT = "Load.675b"
675             2      0.068 +j       0.06      0.090686      0.7498
675             0          0 +j          0             0      1.0000
 TERMINAL TOTAL        0.068 +j       0.06      0.090686      0.7498

ELEMENT = "Load.675c"
675             3       0.29 +j      0.212       0.35923      0.8073
675             0          0 +j          0             0      1.0000
 TERMINAL TOTAL         0.29 +j      0.212       0.35923      0.8073

